FoamFile
{
  version       2.0;
  format        ascii;
  class         volScalarField;
  object        p;
}

dimensions      [1 -1 -2 0 0 0 0];

internalField uniform 1;

boundaryField
{
  axis
  {
    type  empty;
  }

  inlet
  {
    type  fixedValue;
    value uniform 10;
  }

  atmosphere
  {
    type     fixedValue;
    value    uniform 1;
  }

  wall
  {
    type     zeroGradient;
  }

  outlet
  {
    type            waveTransmissive;
    field           p;
    psi             thermo:psi;
    gamma           1.22;
    fieldInf        10;
    lInf            10;
    value           uniform 1;
  }

  front
  {
    type  wedge;
  }

  back
  {
    type  wedge;
  }
}
