/*--------------------------------*- C++ -*----------------------------------*\
| =========                 |                                                 |
| \\      /  F ield         | OpenFOAM: The Open Source CFD Toolbox           |
|  \\    /   O peration     | Version:  4.1                                   |
|   \\  /    A nd           | Web:      www.OpenFOAM.org                      |
|    \\/     M anipulation  |                                                 |
\*---------------------------------------------------------------------------*/
FoamFile
{
    version     2.0;
    format      binary;
    class       polyBoundaryMesh;
    location    "constant/polyMesh";
    object      boundary;
}
// * * * * * * * * * * * * * * * * * * * * * * * * * * * * * * * * * * * * * //

7
(
    axis
    {
        type            empty;
        inGroups        1(empty);
        nFaces          0;
        startFace       29700;
    }
    inlet
    {
        type            patch;
        nFaces          50;
        startFace       29700;
    }
    wall
    {
        type            wall;
        inGroups        1(wall);
        nFaces          200;
        startFace       29750;
    }
    outlet
    {
        type            patch;
        nFaces          100;
        startFace       29950;
    }
    front
    {
        type            wedge;
        inGroups        1(wedge);
        nFaces          15000;
        startFace       30050;
    }
    back
    {
        type            wedge;
        inGroups        1(wedge);
        nFaces          15000;
        startFace       45050;
    }
    atmosphere
    {
        type            patch;
        nFaces          50;
        startFace       60050;
    }
)

// ************************************************************************* //
