FoamFile
{
	version			2.0;
	format			ascii;
	class				dictionary;
	object			blockMeshDict;
}

converToMeters 1;


vertices
(
	(0 0 0)
	(0 0.0121011 -0.000523572)
	(0 0.0121011 0.000523572)
	(0.0915334 0 0)
	(0.0915334 0.0299954 -0.000523572)
	(0.0915334 0.0299954 0.000523572)
	(0.0915334 0.0999848 -0.00174524)
	(0.0915334 0.0999848 0.00174524)
	(3 0 0)
	(3 0.0299954 -0.000523572)
	(3 0.0299954 0.000523572)
	(3 0.0999848 -0.00174524)
	(3 0.0999848 0.00174524)
);


blocks
(
	hex (0 1 2 0 3 4 5 3) (50 1 100) simpleGrading (1 1 1)
	hex (3 4 5 3 8 9 10 8) (50 1 100) simpleGrading (1 1 1)
	hex (4 6 7 5 9 11 12 10) (50 1 100) simpleGrading (1 1 1)
);


edges
(
	arc 1 2 (0 0.0121012 0)
	arc 4 5 (0.0915334 0.03 0)
	arc 6 7 (0.0915334 0.05 0)
	arc 9 10 (3 3. 0)
	arc 11 12 (3 0.05 0)
	BSpline 1 4
(
		(0. 0.0120993 -0.000211194)
		(0.00061594 0.0121007 -0.000211218)
		(0.00125168 0.0121266 -0.000211671)
		(0.00190926 0.0121783 -0.000212573)
		(0.00259072 0.0122567 -0.000213941)
		(0.0032981 0.0123629 -0.000215796)
		(0.00403344 0.0124981 -0.000218155)
		(0.00479854 0.0126629 -0.000221031)
		(0.00559424 0.0128563 -0.000224407)
		(0.00642114 0.0130771 -0.000228261)
		(0.00727984 0.0133239 -0.000232569)
		(0.00817094 0.0135954 -0.000237309)
		(0.00909504 0.0138904 -0.000242457)
		(0.0100527 0.0142074 -0.000247991)
		(0.0110446 0.0145451 -0.000253886)
		(0.0120713 0.0149023 -0.000260121)
		(0.0131334 0.0152777 -0.000266673)
		(0.0142315 0.0156698 -0.000273517)
		(0.0153662 0.0160774 -0.000280632)
		(0.0165381 0.0164991 -0.000287994)
		(0.0177478 0.0169337 -0.00029558)
		(0.0189959 0.0173799 -0.000303366)
		(0.020283 0.0178362 -0.000311331)
		(0.0216097 0.0183014 -0.000319451)
		(0.0229766 0.0187741 -0.000327703)
		(0.0243843 0.0192531 -0.000336064)
		(0.0258334 0.019737 -0.000344511)
		(0.0273245 0.0202245 -0.00035302)
		(0.0288582 0.0207143 -0.000361569)
		(0.0304351 0.021205 -0.000370135)
		(0.0320558 0.0216954 -0.000378695)
		(0.0337209 0.0221841 -0.000387225)
		(0.035431 0.0226698 -0.000395703)
		(0.0371867 0.0231512 -0.000404106)
		(0.0389886 0.023627 -0.00041241)
		(0.0408373 0.0240957 -0.000420593)
		(0.0427334 0.0245563 -0.000428631)
		(0.0446775 0.0250072 -0.000436502)
		(0.0466702 0.0254472 -0.000444182)
		(0.0487121 0.0258749 -0.000451648)
		(0.0508038 0.0262891 -0.000458878)
		(0.0529459 0.0266884 -0.000465848)
		(0.055139 0.0270716 -0.000472536)
		(0.0573837 0.0274372 -0.000478917)
		(0.0596806 0.0277839 -0.00048497)
		(0.0620303 0.0281105 -0.000490671)
		(0.0644334 0.0284157 -0.000495997)
		(0.0668905 0.028698 -0.000500926)
		(0.0694022 0.0289562 -0.000505433)
		(0.0719691 0.029189 -0.000509496)
		(0.0745918 0.029395 -0.000513092)
		(0.0772709 0.029573 -0.000516199)
		(0.080007 0.0297216 -0.000518792)
		(0.0828007 0.0298394 -0.000520849)
		(0.0856526 0.0299252 -0.000522346)
		(0.0885633 0.0299777 -0.000523262)
		(0.0915334 0.0299954 -0.000523572)
	)
	BSpline 2 5
(
		(0. 0.0120993 0.000211194)
		(0.00061594 0.0121007 0.000211218)
		(0.00125168 0.0121266 0.000211671)
		(0.00190926 0.0121783 0.000212573)
		(0.00259072 0.0122567 0.000213941)
		(0.0032981 0.0123629 0.000215796)
		(0.00403344 0.0124981 0.000218155)
		(0.00479854 0.0126629 0.000221031)
		(0.00559424 0.0128563 0.000224407)
		(0.00642114 0.0130771 0.000228261)
		(0.00727984 0.0133239 0.000232569)
		(0.00817094 0.0135954 0.000237309)
		(0.00909504 0.0138904 0.000242457)
		(0.0100527 0.0142074 0.000247991)
		(0.0110446 0.0145451 0.000253886)
		(0.0120713 0.0149023 0.000260121)
		(0.0131334 0.0152777 0.000266673)
		(0.0142315 0.0156698 0.000273517)
		(0.0153662 0.0160774 0.000280632)
		(0.0165381 0.0164991 0.000287994)
		(0.0177478 0.0169337 0.00029558)
		(0.0189959 0.0173799 0.000303366)
		(0.020283 0.0178362 0.000311331)
		(0.0216097 0.0183014 0.000319451)
		(0.0229766 0.0187741 0.000327703)
		(0.0243843 0.0192531 0.000336064)
		(0.0258334 0.019737 0.000344511)
		(0.0273245 0.0202245 0.00035302)
		(0.0288582 0.0207143 0.000361569)
		(0.0304351 0.021205 0.000370135)
		(0.0320558 0.0216954 0.000378695)
		(0.0337209 0.0221841 0.000387225)
		(0.035431 0.0226698 0.000395703)
		(0.0371867 0.0231512 0.000404106)
		(0.0389886 0.023627 0.00041241)
		(0.0408373 0.0240957 0.000420593)
		(0.0427334 0.0245563 0.000428631)
		(0.0446775 0.0250072 0.000436502)
		(0.0466702 0.0254472 0.000444182)
		(0.0487121 0.0258749 0.000451648)
		(0.0508038 0.0262891 0.000458878)
		(0.0529459 0.0266884 0.000465848)
		(0.055139 0.0270716 0.000472536)
		(0.0573837 0.0274372 0.000478917)
		(0.0596806 0.0277839 0.00048497)
		(0.0620303 0.0281105 0.000490671)
		(0.0644334 0.0284157 0.000495997)
		(0.0668905 0.028698 0.000500926)
		(0.0694022 0.0289562 0.000505433)
		(0.0719691 0.029189 0.000509496)
		(0.0745918 0.029395 0.000513092)
		(0.0772709 0.029573 0.000516199)
		(0.080007 0.0297216 0.000518792)
		(0.0828007 0.0298394 0.000520849)
		(0.0856526 0.0299252 0.000522346)
		(0.0885633 0.0299777 0.000523262)
		(0.0915334 0.0299954 0.000523572)
	)
);


boundary
(
	axis
	 {
		type		empty;
		faces
		(
			(0 3 3 0)
			(3 8 8 3)
		);
}
	inlet
	 {
		type		patch;
		faces
		(
			(0 0 2 1)
		);
}
	wall
	 {
		type		wall;
		faces
		(
			(2 5 4 1)
			(7 12 11 6)
		);
}
	outlet
	 {
		type		patch;
		faces
		(
			(8 9 10 8)
			(9 11 12 10)
		);
}
	front
	 {
		type		wedge;
		faces
		(
			(0 3 5 2)
			(3 8 10 5)
			(5 10 12 7)
		);
}
	back
	 {
		type		wedge;
		faces
		(
			(0 1 4 3)
			(3 4 9 8)
			(9 4 6 11)
		);
}
	atmosphere
	 {
		type		patch;
		faces
		(
			(4 5 7 6)
		);
}
);


mergePatchPairs
(
);
