FoamFile
{
	version			2.0;
	format			ascii;
	class				dictionary;
	object			blockMeshDict;
}

converToMeters 1; 

 
vertices 
( 
	(0 0 0) 
	(0 0.00121011 -0.000104698) 
	(0 0.00121011 0.000104698) 
	(0.00915334 0 0) 
	(0.00915334 0.00299817 -0.000104698) 
	(0.00915334 0.00299817 0.000104698) 
	(0.00915334 0.00499695 -0.000174497) 
	(0.00915334 0.00499695 0.000174497) 
	(0.03 0 0) 
	(0.03 0.00299817 -0.000104698) 
	(0.03 0.00299817 0.000104698) 
	(0.03 0.00499695 -0.000174497) 
	(0.03 0.00499695 0.000174497) 
);

 
blocks 
( 
	hex (0 1 2 0 3 4 5 3) (50 1 100) simpleGrading (1 1 1) 
	hex (3 4 5 3 8 9 10 8) (50 1 100) simpleGrading (1 1 1) 
	hex (4 6 7 5 9 11 12 10) (50 1 100) simpleGrading (1 1 1) 
); 

 
edges 
( 
	arc 1 2 (0 0.00121011 0) 
	arc 4 5 (0.00915334 0.003 0) 
	arc 6 7 (0.00915334 0.005 0) 
	arc 9 10 (0.03 0.003 0) 
	arc 11 12 (0.03 0.005 0) 
	BSpline 1 4 
(
		(0. 0.00120937 -0.0000422323)
		(0.000061594 0.00120951 -0.0000422371)
		(0.000125168 0.00121211 -0.0000423278)
		(0.000190926 0.00121727 -0.0000425081)
		(0.000259072 0.00122511 -0.0000427818)
		(0.00032981 0.00123573 -0.0000431526)
		(0.000403344 0.00124924 -0.0000436244)
		(0.000479854 0.00126571 -0.0000441994)
		(0.000559424 0.00128504 -0.0000448746)
		(0.000642114 0.00130711 -0.0000456453)
		(0.000727984 0.00133178 -0.0000465068)
		(0.000817094 0.00135892 -0.0000474546)
		(0.000909504 0.0013884 -0.0000484841)
		(0.00100527 0.00142009 -0.0000495906)
		(0.00110446 0.00145385 -0.0000507696)
		(0.00120713 0.00148955 -0.0000520164)
		(0.00131334 0.00152707 -0.0000533264)
		(0.00142315 0.00156626 -0.0000546951)
		(0.00153662 0.001607 -0.0000561178)
		(0.00165381 0.00164916 -0.00005759)
		(0.00177478 0.0016926 -0.0000591069)
		(0.00189959 0.00173719 -0.0000606641)
		(0.0020283 0.0017828 -0.0000622568)
		(0.00216097 0.0018293 -0.0000638805)
		(0.00229766 0.00187655 -0.0000655306)
		(0.00243843 0.00192443 -0.0000672025)
		(0.00258334 0.0019728 -0.0000688916)
		(0.00273245 0.00202153 -0.0000705932)
		(0.00288582 0.00207048 -0.0000723028)
		(0.00304351 0.00211953 -0.0000740158)
		(0.00320558 0.00216855 -0.0000757274)
		(0.00337209 0.0022174 -0.0000774333)
		(0.0035431 0.00226595 -0.0000791286)
		(0.00371867 0.00231406 -0.0000808089)
		(0.00389886 0.00236162 -0.0000824695)
		(0.00408373 0.00240847 -0.0000841058)
		(0.00427334 0.0024545 -0.0000857132)
		(0.00446775 0.00249957 -0.0000872871)
		(0.00466702 0.00254355 -0.0000888228)
		(0.00487121 0.00258631 -0.0000903159)
		(0.00508038 0.00262771 -0.0000917617)
		(0.00529459 0.00266762 -0.0000931555)
		(0.0055139 0.00270592 -0.0000944928)
		(0.00573837 0.00274246 -0.0000957689)
		(0.00596806 0.00277712 -0.0000969793)
		(0.00620303 0.00280977 -0.0000981193)
		(0.00644334 0.00284027 -0.0000991844)
		(0.00668905 0.00286849 -0.00010017)
		(0.00694022 0.0028943 -0.000101071)
		(0.00719691 0.00291757 -0.000101884)
		(0.00745918 0.00293816 -0.000102603)
		(0.00772709 0.00295595 -0.000103224)
		(0.0080007 0.0029708 -0.000103743)
		(0.00828007 0.00298258 -0.000104154)
		(0.00856526 0.00299115 -0.000104453)
		(0.00885633 0.0029964 -0.000104636)
		(0.00915334 0.00299817 -0.000104698) 
	) 
	BSpline 2 5 
( 
		(0. 0.00120937 0.0000422323) 
		(0.000061594 0.00120951 0.0000422371) 
		(0.000125168 0.00121211 0.0000423278) 
		(0.000190926 0.00121727 0.0000425081) 
		(0.000259072 0.00122511 0.0000427818) 
		(0.00032981 0.00123573 0.0000431526) 
		(0.000403344 0.00124924 0.0000436244) 
		(0.000479854 0.00126571 0.0000441994) 
		(0.000559424 0.00128504 0.0000448746) 
		(0.000642114 0.00130711 0.0000456453) 
		(0.000727984 0.00133178 0.0000465068) 
		(0.000817094 0.00135892 0.0000474546) 
		(0.000909504 0.0013884 0.0000484841) 
		(0.00100527 0.00142009 0.0000495906) 
		(0.00110446 0.00145385 0.0000507696) 
		(0.00120713 0.00148955 0.0000520164) 
		(0.00131334 0.00152707 0.0000533264) 
		(0.00142315 0.00156626 0.0000546951) 
		(0.00153662 0.001607 0.0000561178) 
		(0.00165381 0.00164916 0.00005759) 
		(0.00177478 0.0016926 0.0000591069) 
		(0.00189959 0.00173719 0.0000606641) 
		(0.0020283 0.0017828 0.0000622568) 
		(0.00216097 0.0018293 0.0000638805) 
		(0.00229766 0.00187655 0.0000655306) 
		(0.00243843 0.00192443 0.0000672025) 
		(0.00258334 0.0019728 0.0000688916) 
		(0.00273245 0.00202153 0.0000705932) 
		(0.00288582 0.00207048 0.0000723028) 
		(0.00304351 0.00211953 0.0000740158) 
		(0.00320558 0.00216855 0.0000757274) 
		(0.00337209 0.0022174 0.0000774333) 
		(0.0035431 0.00226595 0.0000791286) 
		(0.00371867 0.00231406 0.0000808089) 
		(0.00389886 0.00236162 0.0000824695) 
		(0.00408373 0.00240847 0.0000841058) 
		(0.00427334 0.0024545 0.0000857132) 
		(0.00446775 0.00249957 0.0000872871) 
		(0.00466702 0.00254355 0.0000888228) 
		(0.00487121 0.00258631 0.0000903159) 
		(0.00508038 0.00262771 0.0000917617) 
		(0.00529459 0.00266762 0.0000931555) 
		(0.0055139 0.00270592 0.0000944928) 
		(0.00573837 0.00274246 0.0000957689) 
		(0.00596806 0.00277712 0.0000969793) 
		(0.00620303 0.00280977 0.0000981193) 
		(0.00644334 0.00284027 0.0000991844) 
		(0.00668905 0.00286849 0.00010017) 
		(0.00694022 0.0028943 0.000101071) 
		(0.00719691 0.00291757 0.000101884) 
		(0.00745918 0.00293816 0.000102603) 
		(0.00772709 0.00295595 0.000103224) 
		(0.0080007 0.0029708 0.000103743) 
		(0.00828007 0.00298258 0.000104154) 
		(0.00856526 0.00299115 0.000104453) 
		(0.00885633 0.0029964 0.000104636) 
		(0.00915334 0.00299817 0.000104698) 
	) 
); 

 
boundary
( 
	axis
	 { 
		type		empty; 
		faces 
		( 
			(0 3 3 0) 
			(3 8 8 3) 
		); 
} 
	inlet
	 { 
		type		patch; 
		faces 
		( 
			(0 0 2 1) 
		); 
} 
	wall
	 { 
		type		wall; 
		faces 
		( 
			(2 5 4 1) 
			(7 12 11 6) 
		); 
} 
	outlet
	 { 
		type		patch; 
		faces 
		( 
			(8 9 10 8) 
			(9 11 12 10) 
		); 
} 
	front
	 { 
		type		wedge; 
		faces 
		( 
			(0 3 5 2) 
			(3 8 10 5) 
			(5 10 12 7) 
		); 
} 
	back
	 { 
		type		wedge; 
		faces 
		( 
			(0 1 4 3) 
			(3 4 9 8) 
			(9 4 6 11) 
		); 
} 
	atmosphere
	 { 
		type		patch; 
		faces 
		( 
			(4 5 7 6) 
		); 
} 
); 

 
mergePatchPairs
( 
);